<?xml version="1.0" encoding="UTF-8"?>

<!-- generated on 2024-08-21 20:21:28 by Eclipse SUMO netconvert Version 1.20.0
<configuration xmlns:xsi="http://www.w3.org/2001/XMLSchema-instance" xsi:noNamespaceSchemaLocation="http://sumo.dlr.de/xsd/netconvertConfiguration.xsd">

    <input>
        <node-files value="./v1.nod.xml"/>
        <edge-files value="./v1.edg.xml"/>
    </input>

    <output>
        <output-file value="v1_raw.net.xml"/>
    </output>

</configuration>
-->

<net version="1.20" junctionCornerDetail="5" limitTurnSpeed="5.50" xmlns:xsi="http://www.w3.org/2001/XMLSchema-instance" xsi:noNamespaceSchemaLocation="http://sumo.dlr.de/xsd/net_file.xsd">

    <location netOffset="0.00,0.00" convBoundary="0.00,0.00,1000.00,0.00" origBoundary="0.00,0.00,1000.00,0.00" projParameter="!"/>
    <type id="highway.motorway" priority="14" numLanes="2" speed="39.44" allow="private emergency authority army vip passenger hov taxi bus coach delivery truck trailer motorcycle evehicle custom1 custom2" oneway="1"/>

    <edge id="e1" from="1" to="2" priority="14" type="highway.motorway">
        <lane id="e1_0" index="0" speed="24.59" length="1000.00" shape="0.00,-14.40 1000.00,-14.40"/>
        <lane id="e1_1" index="1" speed="24.59" length="1000.00" shape="0.00,-11.20 1000.00,-11.20"/>
        <lane id="e1_2" index="2" speed="24.59" length="1000.00" shape="0.00,-8.00 1000.00,-8.00"/>
        <lane id="e1_3" index="3" speed="24.59" length="1000.00" shape="0.00,-4.80 1000.00,-4.80"/>
        <lane id="e1_4" index="4" speed="24.59" length="1000.00" shape="0.00,-1.60 1000.00,-1.60"/>
    </edge>

    <junction id="1" type="dead_end" x="0.00" y="0.00" incLanes="" intLanes="" shape="0.00,0.00 0.00,-16.00"/>
    <junction id="2" type="dead_end" x="1000.00" y="0.00" incLanes="e1_0 e1_1 e1_2 e1_3 e1_4" intLanes="" shape="1000.00,-16.00 1000.00,0.00"/>

</net>
